*SPEF "IEEE 1481-1999"
*DESIGN "raven_soc"
*DATE "Tue May 13 18:03:06 2025"
*VENDOR "SYNOPSYS INC"
*PROGRAM "Synopsys Design Compiler (R) NXT cmos"
*VERSION "T-2022.03-SP4"
*DESIGN_FLOW "SYNTHESIS"
*DIVIDER /
*DELIMITER :
*BUS_DELIMITER []
*T_UNIT 1.0 NS
*C_UNIT 0.0010 PF
*R_UNIT 1000.0 KOHM
*L_UNIT 1.0 HENRY

*PORTS

pll_clk I *L 0.000e+00 *S 0.000e+00 0.000e+00 
ext_clk I *L 0.000e+00 *S 0.000e+00 0.000e+00 
ext_clk_sel I *L 0.000e+00 *S 0.000e+00 0.000e+00 
ext_reset I *L 0.000e+00 *S 0.000e+00 0.000e+00 
reset I *L 0.000e+00 *S 0.000e+00 0.000e+00 
ram_wenb O *L 2.000e-01 *S 2.824e-03 3.156e-03 
ram_addr\[9\] O *L 2.000e-01 *S 5.262e-03 7.088e-03 
ram_addr\[8\] O *L 2.000e-01 *S 4.948e-03 6.771e-03 
ram_addr\[7\] O *L 2.000e-01 *S 5.257e-03 7.083e-03 
ram_addr\[6\] O *L 2.000e-01 *S 5.303e-03 7.129e-03 
ram_addr\[5\] O *L 2.000e-01 *S 9.062e-03 1.092e-02 
ram_addr\[4\] O *L 2.000e-01 *S 9.062e-03 1.092e-02 
ram_addr\[3\] O *L 2.000e-01 *S 9.365e-03 1.123e-02 
ram_addr\[2\] O *L 2.000e-01 *S 6.791e-03 8.631e-03 
ram_addr\[1\] O *L 2.000e-01 *S 7.398e-03 9.243e-03 
ram_addr\[0\] O *L 2.000e-01 *S 7.743e-03 9.591e-03 
ram_wdata\[31\] O *L 2.000e-01 *S 5.527e-03 7.355e-03 
ram_wdata\[30\] O *L 2.000e-01 *S 4.084e-03 5.657e-03 
ram_wdata\[29\] O *L 2.000e-01 *S 4.084e-03 5.657e-03 
ram_wdata\[28\] O *L 2.000e-01 *S 4.084e-03 5.657e-03 
ram_wdata\[27\] O *L 2.000e-01 *S 4.084e-03 5.657e-03 
ram_wdata\[26\] O *L 2.000e-01 *S 4.084e-03 5.657e-03 
ram_wdata\[25\] O *L 2.000e-01 *S 4.084e-03 5.657e-03 
ram_wdata\[24\] O *L 2.000e-01 *S 4.084e-03 5.657e-03 
ram_wdata\[23\] O *L 2.000e-01 *S 4.084e-03 5.657e-03 
ram_wdata\[22\] O *L 2.000e-01 *S 5.527e-03 7.355e-03 
ram_wdata\[21\] O *L 2.000e-01 *S 5.527e-03 7.355e-03 
ram_wdata\[20\] O *L 2.000e-01 *S 5.527e-03 7.355e-03 
ram_wdata\[19\] O *L 2.000e-01 *S 5.527e-03 7.355e-03 
ram_wdata\[18\] O *L 2.000e-01 *S 5.527e-03 7.355e-03 
ram_wdata\[17\] O *L 2.000e-01 *S 5.527e-03 7.355e-03 
ram_wdata\[16\] O *L 2.000e-01 *S 5.527e-03 7.355e-03 
ram_wdata\[15\] O *L 2.000e-01 *S 6.428e-03 8.264e-03 
ram_wdata\[14\] O *L 2.000e-01 *S 6.428e-03 8.264e-03 
ram_wdata\[13\] O *L 2.000e-01 *S 6.428e-03 8.264e-03 
ram_wdata\[12\] O *L 2.000e-01 *S 6.428e-03 8.264e-03 
ram_wdata\[11\] O *L 2.000e-01 *S 7.640e-03 9.487e-03 
ram_wdata\[10\] O *L 2.000e-01 *S 7.640e-03 9.487e-03 
ram_wdata\[9\] O *L 2.000e-01 *S 7.640e-03 9.487e-03 
ram_wdata\[8\] O *L 2.000e-01 *S 7.640e-03 9.487e-03 
ram_wdata\[7\] O *L 2.000e-01 *S 7.974e-03 9.824e-03 
ram_wdata\[6\] O *L 2.000e-01 *S 7.974e-03 9.824e-03 
ram_wdata\[5\] O *L 2.000e-01 *S 9.190e-03 1.105e-02 
ram_wdata\[4\] O *L 2.000e-01 *S 9.190e-03 1.105e-02 
ram_wdata\[3\] O *L 2.000e-01 *S 9.190e-03 1.105e-02 
ram_wdata\[2\] O *L 2.000e-01 *S 9.190e-03 1.105e-02 
ram_wdata\[1\] O *L 2.000e-01 *S 9.571e-03 1.144e-02 
ram_wdata\[0\] O *L 2.000e-01 *S 8.956e-03 1.082e-02 
ram_rdata\[31\] I *L 0.000e+00 *S 0.000e+00 0.000e+00 
ram_rdata\[30\] I *L 0.000e+00 *S 0.000e+00 0.000e+00 
ram_rdata\[29\] I *L 0.000e+00 *S 0.000e+00 0.000e+00 
ram_rdata\[28\] I *L 0.000e+00 *S 0.000e+00 0.000e+00 
ram_rdata\[27\] I *L 0.000e+00 *S 0.000e+00 0.000e+00 
ram_rdata\[26\] I *L 0.000e+00 *S 0.000e+00 0.000e+00 
ram_rdata\[25\] I *L 0.000e+00 *S 0.000e+00 0.000e+00 
ram_rdata\[24\] I *L 0.000e+00 *S 0.000e+00 0.000e+00 
ram_rdata\[23\] I *L 0.000e+00 *S 0.000e+00 0.000e+00 
ram_rdata\[22\] I *L 0.000e+00 *S 0.000e+00 0.000e+00 
ram_rdata\[21\] I *L 0.000e+00 *S 0.000e+00 0.000e+00 
ram_rdata\[20\] I *L 0.000e+00 *S 0.000e+00 0.000e+00 
ram_rdata\[19\] I *L 0.000e+00 *S 0.000e+00 0.000e+00 
ram_rdata\[18\] I *L 0.000e+00 *S 0.000e+00 0.000e+00 
ram_rdata\[17\] I *L 0.000e+00 *S 0.000e+00 0.000e+00 
ram_rdata\[16\] I *L 0.000e+00 *S 0.000e+00 0.000e+00 
ram_rdata\[15\] I *L 0.000e+00 *S 0.000e+00 0.000e+00 
ram_rdata\[14\] I *L 0.000e+00 *S 0.000e+00 0.000e+00 
ram_rdata\[13\] I *L 0.000e+00 *S 0.000e+00 0.000e+00 
ram_rdata\[12\] I *L 0.000e+00 *S 0.000e+00 0.000e+00 
ram_rdata\[11\] I *L 0.000e+00 *S 0.000e+00 0.000e+00 
ram_rdata\[10\] I *L 0.000e+00 *S 0.000e+00 0.000e+00 
ram_rdata\[9\] I *L 0.000e+00 *S 0.000e+00 0.000e+00 
ram_rdata\[8\] I *L 0.000e+00 *S 0.000e+00 0.000e+00 
ram_rdata\[7\] I *L 0.000e+00 *S 0.000e+00 0.000e+00 
ram_rdata\[6\] I *L 0.000e+00 *S 0.000e+00 0.000e+00 
ram_rdata\[5\] I *L 0.000e+00 *S 0.000e+00 0.000e+00 
ram_rdata\[4\] I *L 0.000e+00 *S 0.000e+00 0.000e+00 
ram_rdata\[3\] I *L 0.000e+00 *S 0.000e+00 0.000e+00 
ram_rdata\[2\] I *L 0.000e+00 *S 0.000e+00 0.000e+00 
ram_rdata\[1\] I *L 0.000e+00 *S 0.000e+00 0.000e+00 
ram_rdata\[0\] I *L 0.000e+00 *S 0.000e+00 0.000e+00 
gpio_out\[15\] O *L 2.000e-01 *S 1.073e-02 1.046e-02 
gpio_out\[14\] O *L 2.000e-01 *S 1.073e-02 1.046e-02 
gpio_out\[13\] O *L 2.000e-01 *S 4.410e-03 4.449e-03 
gpio_out\[12\] O *L 2.000e-01 *S 4.410e-03 4.449e-03 
gpio_out\[11\] O *L 2.000e-01 *S 4.410e-03 4.449e-03 
gpio_out\[10\] O *L 2.000e-01 *S 4.410e-03 4.449e-03 
gpio_out\[9\] O *L 2.000e-01 *S 4.410e-03 4.449e-03 
gpio_out\[8\] O *L 2.000e-01 *S 4.410e-03 4.449e-03 
gpio_out\[7\] O *L 2.000e-01 *S 4.410e-03 4.449e-03 
gpio_out\[6\] O *L 2.000e-01 *S 4.410e-03 4.449e-03 
gpio_out\[5\] O *L 2.000e-01 *S 4.410e-03 4.449e-03 
gpio_out\[4\] O *L 2.000e-01 *S 4.410e-03 4.449e-03 
gpio_out\[3\] O *L 2.000e-01 *S 4.410e-03 4.449e-03 
gpio_out\[2\] O *L 2.000e-01 *S 4.410e-03 4.449e-03 
gpio_out\[1\] O *L 2.000e-01 *S 4.410e-03 4.449e-03 
gpio_out\[0\] O *L 2.000e-01 *S 4.410e-03 4.449e-03 
gpio_in\[15\] I *L 0.000e+00 *S 0.000e+00 0.000e+00 
gpio_in\[14\] I *L 0.000e+00 *S 0.000e+00 0.000e+00 
gpio_in\[13\] I *L 0.000e+00 *S 0.000e+00 0.000e+00 
gpio_in\[12\] I *L 0.000e+00 *S 0.000e+00 0.000e+00 
gpio_in\[11\] I *L 0.000e+00 *S 0.000e+00 0.000e+00 
gpio_in\[10\] I *L 0.000e+00 *S 0.000e+00 0.000e+00 
gpio_in\[9\] I *L 0.000e+00 *S 0.000e+00 0.000e+00 
gpio_in\[8\] I *L 0.000e+00 *S 0.000e+00 0.000e+00 
gpio_in\[7\] I *L 0.000e+00 *S 0.000e+00 0.000e+00 
gpio_in\[6\] I *L 0.000e+00 *S 0.000e+00 0.000e+00 
gpio_in\[5\] I *L 0.000e+00 *S 0.000e+00 0.000e+00 
gpio_in\[4\] I *L 0.000e+00 *S 0.000e+00 0.000e+00 
gpio_in\[3\] I *L 0.000e+00 *S 0.000e+00 0.000e+00 
gpio_in\[2\] I *L 0.000e+00 *S 0.000e+00 0.000e+00 
gpio_in\[1\] I *L 0.000e+00 *S 0.000e+00 0.000e+00 
gpio_in\[0\] I *L 0.000e+00 *S 0.000e+00 0.000e+00 
gpio_pullup\[15\] O *L 2.000e-01 *S 4.211e-03 3.603e-03 
gpio_pullup\[14\] O *L 2.000e-01 *S 4.211e-03 3.603e-03 
gpio_pullup\[13\] O *L 2.000e-01 *S 4.211e-03 3.603e-03 
gpio_pullup\[12\] O *L 2.000e-01 *S 4.211e-03 3.603e-03 
gpio_pullup\[11\] O *L 2.000e-01 *S 4.211e-03 3.603e-03 
gpio_pullup\[10\] O *L 2.000e-01 *S 4.211e-03 3.603e-03 
gpio_pullup\[9\] O *L 2.000e-01 *S 4.211e-03 3.603e-03 
gpio_pullup\[8\] O *L 2.000e-01 *S 4.211e-03 3.603e-03 
gpio_pullup\[7\] O *L 2.000e-01 *S 4.211e-03 3.603e-03 
gpio_pullup\[6\] O *L 2.000e-01 *S 4.211e-03 3.603e-03 
gpio_pullup\[5\] O *L 2.000e-01 *S 4.211e-03 3.603e-03 
gpio_pullup\[4\] O *L 2.000e-01 *S 4.211e-03 3.603e-03 
gpio_pullup\[3\] O *L 2.000e-01 *S 4.211e-03 3.603e-03 
gpio_pullup\[2\] O *L 2.000e-01 *S 4.211e-03 3.603e-03 
gpio_pullup\[1\] O *L 2.000e-01 *S 4.211e-03 3.603e-03 
gpio_pullup\[0\] O *L 2.000e-01 *S 4.211e-03 3.603e-03 
gpio_pulldown\[15\] O *L 2.000e-01 *S 4.211e-03 3.603e-03 
gpio_pulldown\[14\] O *L 2.000e-01 *S 4.211e-03 3.603e-03 
gpio_pulldown\[13\] O *L 2.000e-01 *S 4.211e-03 3.603e-03 
gpio_pulldown\[12\] O *L 2.000e-01 *S 4.211e-03 3.603e-03 
gpio_pulldown\[11\] O *L 2.000e-01 *S 4.211e-03 3.603e-03 
gpio_pulldown\[10\] O *L 2.000e-01 *S 4.211e-03 3.603e-03 
gpio_pulldown\[9\] O *L 2.000e-01 *S 4.211e-03 3.603e-03 
gpio_pulldown\[8\] O *L 2.000e-01 *S 4.211e-03 3.603e-03 
gpio_pulldown\[7\] O *L 2.000e-01 *S 4.211e-03 3.603e-03 
gpio_pulldown\[6\] O *L 2.000e-01 *S 4.211e-03 3.603e-03 
gpio_pulldown\[5\] O *L 2.000e-01 *S 4.211e-03 3.603e-03 
gpio_pulldown\[4\] O *L 2.000e-01 *S 4.211e-03 3.603e-03 
gpio_pulldown\[3\] O *L 2.000e-01 *S 4.211e-03 3.603e-03 
gpio_pulldown\[2\] O *L 2.000e-01 *S 4.211e-03 3.603e-03 
gpio_pulldown\[1\] O *L 2.000e-01 *S 4.211e-03 3.603e-03 
gpio_pulldown\[0\] O *L 2.000e-01 *S 4.211e-03 3.603e-03 
gpio_outenb\[15\] O *L 2.000e-01 *S 1.187e-03 1.038e-03 
gpio_outenb\[14\] O *L 2.000e-01 *S 1.187e-03 1.038e-03 
gpio_outenb\[13\] O *L 2.000e-01 *S 1.187e-03 1.038e-03 
gpio_outenb\[12\] O *L 2.000e-01 *S 1.187e-03 1.038e-03 
gpio_outenb\[11\] O *L 2.000e-01 *S 4.211e-03 3.603e-03 
gpio_outenb\[10\] O *L 2.000e-01 *S 4.211e-03 3.603e-03 
gpio_outenb\[9\] O *L 2.000e-01 *S 4.211e-03 3.603e-03 
gpio_outenb\[8\] O *L 2.000e-01 *S 4.211e-03 3.603e-03 
gpio_outenb\[7\] O *L 2.000e-01 *S 4.211e-03 3.603e-03 
gpio_outenb\[6\] O *L 2.000e-01 *S 4.211e-03 3.603e-03 
gpio_outenb\[5\] O *L 2.000e-01 *S 4.211e-03 3.603e-03 
gpio_outenb\[4\] O *L 2.000e-01 *S 4.211e-03 3.603e-03 
gpio_outenb\[3\] O *L 2.000e-01 *S 4.211e-03 3.603e-03 
gpio_outenb\[2\] O *L 2.000e-01 *S 4.211e-03 3.603e-03 
gpio_outenb\[1\] O *L 2.000e-01 *S 4.211e-03 3.603e-03 
gpio_outenb\[0\] O *L 2.000e-01 *S 4.211e-03 3.603e-03 
adc0_ena O *L 2.000e-01 *S 5.245e-03 7.071e-03 
adc0_convert O *L 2.000e-01 *S 3.015e-03 4.177e-03 
adc0_data\[9\] I *L 0.000e+00 *S 0.000e+00 0.000e+00 
adc0_data\[8\] I *L 0.000e+00 *S 0.000e+00 0.000e+00 
adc0_data\[7\] I *L 0.000e+00 *S 0.000e+00 0.000e+00 
adc0_data\[6\] I *L 0.000e+00 *S 0.000e+00 0.000e+00 
adc0_data\[5\] I *L 0.000e+00 *S 0.000e+00 0.000e+00 
adc0_data\[4\] I *L 0.000e+00 *S 0.000e+00 0.000e+00 
adc0_data\[3\] I *L 0.000e+00 *S 0.000e+00 0.000e+00 
adc0_data\[2\] I *L 0.000e+00 *S 0.000e+00 0.000e+00 
adc0_data\[1\] I *L 0.000e+00 *S 0.000e+00 0.000e+00 
adc0_data\[0\] I *L 0.000e+00 *S 0.000e+00 0.000e+00 
adc0_done I *L 0.000e+00 *S 0.000e+00 0.000e+00 
adc0_clk O *L 2.000e-01 *S 5.098e-03 4.930e-03 
adc0_inputsrc\[1\] O *L 2.000e-01 *S 3.015e-03 4.177e-03 
adc0_inputsrc\[0\] O *L 2.000e-01 *S 3.015e-03 4.177e-03 
adc1_ena O *L 2.000e-01 *S 3.015e-03 4.177e-03 
adc1_convert O *L 2.000e-01 *S 3.015e-03 4.177e-03 
adc1_clk O *L 2.000e-01 *S 5.098e-03 4.930e-03 
adc1_inputsrc\[1\] O *L 2.000e-01 *S 5.190e-03 7.015e-03 
adc1_inputsrc\[0\] O *L 2.000e-01 *S 3.015e-03 4.177e-03 
adc1_data\[9\] I *L 0.000e+00 *S 0.000e+00 0.000e+00 
adc1_data\[8\] I *L 0.000e+00 *S 0.000e+00 0.000e+00 
adc1_data\[7\] I *L 0.000e+00 *S 0.000e+00 0.000e+00 
adc1_data\[6\] I *L 0.000e+00 *S 0.000e+00 0.000e+00 
adc1_data\[5\] I *L 0.000e+00 *S 0.000e+00 0.000e+00 
adc1_data\[4\] I *L 0.000e+00 *S 0.000e+00 0.000e+00 
adc1_data\[3\] I *L 0.000e+00 *S 0.000e+00 0.000e+00 
adc1_data\[2\] I *L 0.000e+00 *S 0.000e+00 0.000e+00 
adc1_data\[1\] I *L 0.000e+00 *S 0.000e+00 0.000e+00 
adc1_data\[0\] I *L 0.000e+00 *S 0.000e+00 0.000e+00 
adc1_done I *L 0.000e+00 *S 0.000e+00 0.000e+00 
dac_ena O *L 2.000e-01 *S 4.927e-03 6.749e-03 
dac_value\[9\] O *L 2.000e-01 *S 3.015e-03 4.177e-03 
dac_value\[8\] O *L 2.000e-01 *S 3.015e-03 4.177e-03 
dac_value\[7\] O *L 2.000e-01 *S 3.015e-03 4.177e-03 
dac_value\[6\] O *L 2.000e-01 *S 3.015e-03 4.177e-03 
dac_value\[5\] O *L 2.000e-01 *S 3.015e-03 4.177e-03 
dac_value\[4\] O *L 2.000e-01 *S 3.015e-03 4.177e-03 
dac_value\[3\] O *L 2.000e-01 *S 3.015e-03 4.177e-03 
dac_value\[2\] O *L 2.000e-01 *S 3.015e-03 4.177e-03 
dac_value\[1\] O *L 2.000e-01 *S 3.015e-03 4.177e-03 
dac_value\[0\] O *L 2.000e-01 *S 3.015e-03 4.177e-03 
analog_out_sel O *L 2.000e-01 *S 5.571e-03 7.400e-03 
opamp_ena O *L 2.000e-01 *S 4.927e-03 6.749e-03 
opamp_bias_ena O *L 2.000e-01 *S 5.399e-03 7.226e-03 
bg_ena O *L 2.000e-01 *S 5.245e-03 7.071e-03 
comp_ena O *L 2.000e-01 *S 5.245e-03 7.071e-03 
comp_ninputsrc\[1\] O *L 2.000e-01 *S 4.662e-03 6.458e-03 
comp_ninputsrc\[0\] O *L 2.000e-01 *S 3.015e-03 4.177e-03 
comp_pinputsrc\[1\] O *L 2.000e-01 *S 4.952e-03 6.774e-03 
comp_pinputsrc\[0\] O *L 2.000e-01 *S 5.245e-03 7.071e-03 
rcosc_ena O *L 2.000e-01 *S 5.245e-03 7.071e-03 
overtemp_ena O *L 2.000e-01 *S 3.015e-03 4.177e-03 
overtemp I *L 0.000e+00 *S 0.000e+00 0.000e+00 
rcosc_in I *L 0.000e+00 *S 0.000e+00 0.000e+00 
xtal_in I *L 0.000e+00 *S 0.000e+00 0.000e+00 
comp_in I *L 0.000e+00 *S 0.000e+00 0.000e+00 
spi_sck I *L 0.000e+00 *S 0.000e+00 0.000e+00 
spi_ro_config\[7\] I *L 0.000e+00 *S 0.000e+00 0.000e+00 
spi_ro_config\[6\] I *L 0.000e+00 *S 0.000e+00 0.000e+00 
spi_ro_config\[5\] I *L 0.000e+00 *S 0.000e+00 0.000e+00 
spi_ro_config\[4\] I *L 0.000e+00 *S 0.000e+00 0.000e+00 
spi_ro_config\[3\] I *L 0.000e+00 *S 0.000e+00 0.000e+00 
spi_ro_config\[2\] I *L 0.000e+00 *S 0.000e+00 0.000e+00 
spi_ro_config\[1\] I *L 0.000e+00 *S 0.000e+00 0.000e+00 
spi_ro_config\[0\] I *L 0.000e+00 *S 0.000e+00 0.000e+00 
spi_ro_xtal_ena I *L 0.000e+00 *S 0.000e+00 0.000e+00 
spi_ro_reg_ena I *L 0.000e+00 *S 0.000e+00 0.000e+00 
spi_ro_pll_cp_ena I *L 0.000e+00 *S 0.000e+00 0.000e+00 
spi_ro_pll_vco_ena I *L 0.000e+00 *S 0.000e+00 0.000e+00 
spi_ro_pll_bias_ena I *L 0.000e+00 *S 0.000e+00 0.000e+00 
spi_ro_pll_trim\[3\] I *L 0.000e+00 *S 0.000e+00 0.000e+00 
spi_ro_pll_trim\[2\] I *L 0.000e+00 *S 0.000e+00 0.000e+00 
spi_ro_pll_trim\[1\] I *L 0.000e+00 *S 0.000e+00 0.000e+00 
spi_ro_pll_trim\[0\] I *L 0.000e+00 *S 0.000e+00 0.000e+00 
spi_ro_mfgr_id\[11\] I *L 0.000e+00 *S 0.000e+00 0.000e+00 
spi_ro_mfgr_id\[10\] I *L 0.000e+00 *S 0.000e+00 0.000e+00 
spi_ro_mfgr_id\[9\] I *L 0.000e+00 *S 0.000e+00 0.000e+00 
spi_ro_mfgr_id\[8\] I *L 0.000e+00 *S 0.000e+00 0.000e+00 
spi_ro_mfgr_id\[7\] I *L 0.000e+00 *S 0.000e+00 0.000e+00 
spi_ro_mfgr_id\[6\] I *L 0.000e+00 *S 0.000e+00 0.000e+00 
spi_ro_mfgr_id\[5\] I *L 0.000e+00 *S 0.000e+00 0.000e+00 
spi_ro_mfgr_id\[4\] I *L 0.000e+00 *S 0.000e+00 0.000e+00 
spi_ro_mfgr_id\[3\] I *L 0.000e+00 *S 0.000e+00 0.000e+00 
spi_ro_mfgr_id\[2\] I *L 0.000e+00 *S 0.000e+00 0.000e+00 
spi_ro_mfgr_id\[1\] I *L 0.000e+00 *S 0.000e+00 0.000e+00 
spi_ro_mfgr_id\[0\] I *L 0.000e+00 *S 0.000e+00 0.000e+00 
spi_ro_prod_id\[7\] I *L 0.000e+00 *S 0.000e+00 0.000e+00 
spi_ro_prod_id\[6\] I *L 0.000e+00 *S 0.000e+00 0.000e+00 
spi_ro_prod_id\[5\] I *L 0.000e+00 *S 0.000e+00 0.000e+00 
spi_ro_prod_id\[4\] I *L 0.000e+00 *S 0.000e+00 0.000e+00 
spi_ro_prod_id\[3\] I *L 0.000e+00 *S 0.000e+00 0.000e+00 
spi_ro_prod_id\[2\] I *L 0.000e+00 *S 0.000e+00 0.000e+00 
spi_ro_prod_id\[1\] I *L 0.000e+00 *S 0.000e+00 0.000e+00 
spi_ro_prod_id\[0\] I *L 0.000e+00 *S 0.000e+00 0.000e+00 
spi_ro_mask_rev\[3\] I *L 0.000e+00 *S 0.000e+00 0.000e+00 
spi_ro_mask_rev\[2\] I *L 0.000e+00 *S 0.000e+00 0.000e+00 
spi_ro_mask_rev\[1\] I *L 0.000e+00 *S 0.000e+00 0.000e+00 
spi_ro_mask_rev\[0\] I *L 0.000e+00 *S 0.000e+00 0.000e+00 
ser_tx O *L 2.000e-01 *S 1.799e-03 1.850e-03 
ser_rx I *L 0.000e+00 *S 0.000e+00 0.000e+00 
irq_pin I *L 0.000e+00 *S 0.000e+00 0.000e+00 
irq_spi I *L 0.000e+00 *S 0.000e+00 0.000e+00 
trap O *L 2.000e-01 *S 1.170e-02 1.358e-02 
flash_csb O *L 2.000e-01 *S 1.032e-03 9.474e-04 
flash_clk O *L 2.000e-01 *S 1.032e-03 9.474e-04 
flash_io0_oeb O *L 2.000e-01 *S 1.032e-03 9.474e-04 
flash_io1_oeb O *L 2.000e-01 *S 1.032e-03 9.474e-04 
flash_io2_oeb O *L 2.000e-01 *S 1.032e-03 9.474e-04 
flash_io3_oeb O *L 2.000e-01 *S 1.032e-03 9.474e-04 
flash_io0_do O *L 2.000e-01 *S 1.032e-03 9.474e-04 
flash_io1_do O *L 2.000e-01 *S 1.032e-03 9.474e-04 
flash_io2_do O *L 2.000e-01 *S 1.032e-03 9.474e-04 
flash_io3_do O *L 2.000e-01 *S 1.032e-03 9.474e-04 
flash_io0_di I *L 0.000e+00 *S 0.000e+00 0.000e+00 
flash_io1_di I *L 0.000e+00 *S 0.000e+00 0.000e+00 
flash_io2_di I *L 0.000e+00 *S 0.000e+00 0.000e+00 
flash_io3_di I *L 0.000e+00 *S 0.000e+00 0.000e+00 

*R_NET pll_clk 5.330e-01
*DRIVER pll_clk
*CELL NULL
*C2_R1_C1 2.665e-01 8.117e-02 2.665e-01 
*LOADS
*RC U390:D1 4.603e-03
*RC U393:D1 4.603e-03
*RC U1639:A2 5.230e-03
*END

*R_NET ext_clk 7.110e-01
*DRIVER ext_clk
*CELL NULL
*C2_R1_C1 3.555e-01 8.117e-02 3.555e-01 
*LOADS
*RC U938:B2 5.407e-03
*RC U1639:B2 8.424e-03
*RC U935:B2 5.407e-03
*END

*R_NET ext_clk_sel 4.362e-01
*DRIVER ext_clk_sel
*CELL NULL
*C2_R1_C1 2.181e-01 5.002e-02 2.181e-01 
*LOADS
*RC U1048:A 3.981e-03
*RC U1639:B1 6.929e-03
*END

*R_NET ext_reset 2.105e-01
*DRIVER ext_reset
*CELL NULL
*C2_R1_C1 1.053e-01 2.192e-02 1.053e-01 
*LOADS
*RC U1030:A2 4.615e-03
*END

*R_NET reset 2.583e-01
*DRIVER reset
*CELL NULL
*C2_R1_C1 1.292e-01 2.192e-02 1.292e-01 
*LOADS
*RC U1030:A1 5.663e-03
*END

*R_NET ram_wenb 2.043e-01
*DRIVER U1802:X
*CELL SAEDRVT14_ND2_CDC_1
*C2_R1_C1 1.022e-01 2.192e-02 1.022e-01 
*LOADS
*RC ram_wenb 4.480e-03
*END

*R_NET ram_addr\[9\] 6.786e-01
*DRIVER cpu/mem_addr_reg_11_:Q
*CELL SAEDRVT14_FSDPQ_V2LP_1
*C2_R1_C1 3.393e-01 8.117e-02 3.393e-01 
*LOADS
*RC spimemio/addr_11__UPF_LS:A 6.356e-03
*RC U1137:A3 6.447e-03
*RC ram_addr\[9\] 5.557e-03
*END

*R_NET ram_addr\[8\] 6.215e-01
*DRIVER cpu/mem_addr_reg_10_:Q
*CELL SAEDRVT14_FSDPQ_V2LP_1
*C2_R1_C1 3.108e-01 8.117e-02 3.108e-01 
*LOADS
*RC spimemio/addr_10__UPF_LS:A 6.356e-03
*RC U1137:A1 5.134e-03
*RC ram_addr\[8\] 5.557e-03
*END

*R_NET ram_addr\[7\] 6.734e-01
*DRIVER cpu/mem_addr_reg_9_:Q
*CELL SAEDRVT14_FSDPQ_V2LP_1
*C2_R1_C1 3.367e-01 8.117e-02 3.367e-01 
*LOADS
*RC spimemio/addr_9__UPF_LS:A 6.356e-03
*RC U1137:A2 6.537e-03
*RC ram_addr\[7\] 5.557e-03
*END

*R_NET ram_addr\[6\] 6.953e-01
*DRIVER cpu/mem_addr_reg_8_:Q
*CELL SAEDRVT14_FSDPQ_V2LP_1
*C2_R1_C1 3.477e-01 8.117e-02 3.477e-01 
*LOADS
*RC spimemio/addr_8__UPF_LS:A 6.356e-03
*RC U1137:A4 6.901e-03
*RC ram_addr\[6\] 5.557e-03
*END

*R_NET ram_addr\[5\] 1.435e+00
*DRIVER cpu/mem_addr_reg_7_:Q
*CELL SAEDRVT14_FSDPQ_V2LP_1
*C2_R1_C1 7.175e-01 1.969e-01 7.175e-01 
*LOADS
*RC spimemio/addr_7__UPF_LS:A 7.745e-03
*RC U1143:A 5.273e-03
*RC U1150:A1 6.367e-03
*RC U1376:A1 1.061e-02
*RC U1428:A1 1.061e-02
*RC ram_addr\[5\] 6.775e-03
*END

*R_NET ram_addr\[4\] 1.435e+00
*DRIVER cpu/mem_addr_reg_6_:Q
*CELL SAEDRVT14_FSDPQ_V2LP_1
*C2_R1_C1 7.175e-01 1.969e-01 7.175e-01 
*LOADS
*RC spimemio/addr_6__UPF_LS:A 7.745e-03
*RC U1142:A1 6.367e-03
*RC U1151:A 5.273e-03
*RC U1265:A1 1.061e-02
*RC U1286:A1 1.061e-02
*RC ram_addr\[4\] 6.775e-03
*END

*R_NET ram_addr\[3\] 1.475e+00
*DRIVER cpu/mem_addr_reg_5_:Q
*CELL SAEDRVT14_FSDPQ_V2LP_1
*C2_R1_C1 7.374e-01 1.969e-01 7.374e-01 
*LOADS
*RC spimemio/addr_5__UPF_LS:A 7.745e-03
*RC U1129:A2 8.308e-03
*RC U1277:A 5.273e-03
*RC U1307:A1 1.061e-02
*RC U1327:A1 1.061e-02
*RC ram_addr\[3\] 6.775e-03
*END

*R_NET ram_addr\[2\] 9.806e-01
*DRIVER cpu/mem_addr_reg_4_:Q
*CELL SAEDRVT14_FSDPQ_V2LP_1
*C2_R1_C1 4.903e-01 1.542e-01 4.903e-01 
*LOADS
*RC spimemio/addr_4__UPF_LS:A 7.268e-03
*RC U1129:A1 5.972e-03
*RC U1278:A1 5.972e-03
*RC U1305:A 4.945e-03
*RC ram_addr\[2\] 6.357e-03
*END

*R_NET ram_addr\[1\] 1.108e+00
*DRIVER cpu/mem_addr_reg_3_:Q
*CELL SAEDRVT14_FSDPQ_V2LP_1
*C2_R1_C1 5.539e-01 1.542e-01 5.539e-01 
*LOADS
*RC spimemio/addr_3__UPF_LS:A 7.268e-03
*RC U1141:A 4.945e-03
*RC U1150:A2 7.797e-03
*RC U1264:A2 7.797e-03
*RC ram_addr\[1\] 6.357e-03
*END

*R_NET ram_addr\[0\] 1.151e+00
*DRIVER cpu/mem_addr_reg_2_:Q
*CELL SAEDRVT14_FSDPQ_V2LP_1
*C2_R1_C1 5.755e-01 1.542e-01 5.755e-01 
*LOADS
*RC spimemio/addr_2__UPF_LS:A 7.268e-03
*RC U1130:A 4.945e-03
*RC U1156:A1 9.958e-03
*RC U1326:A2 7.797e-03
*RC ram_addr\[0\] 6.357e-03
*END

*R_NET ram_wdata\[31\] 7.271e-01
*DRIVER cpu/mem_wdata_reg_31_:Q
*CELL SAEDRVT14_FSDPQ_V2LP_1
*C2_R1_C1 3.635e-01 8.117e-02 3.635e-01 
*LOADS
*RC simpleuart/U236:A2 7.989e-03
*RC spimemio/cfgreg_di_31__UPF_LS:A 6.356e-03
*RC ram_wdata\[31\] 5.557e-03
*END

*R_NET ram_wdata\[30\] 4.998e-01
*DRIVER cpu/mem_wdata_reg_30_:Q
*CELL SAEDRVT14_FSDPQ_V2LP_1
*C2_R1_C1 2.499e-01 5.002e-02 2.499e-01 
*LOADS
*RC simpleuart/U235:A2 7.374e-03
*RC ram_wdata\[30\] 5.126e-03
*END

*R_NET ram_wdata\[29\] 4.998e-01
*DRIVER cpu/mem_wdata_reg_29_:Q
*CELL SAEDRVT14_FSDPQ_V2LP_1
*C2_R1_C1 2.499e-01 5.002e-02 2.499e-01 
*LOADS
*RC simpleuart/U225:A2 7.374e-03
*RC ram_wdata\[29\] 5.126e-03
*END

*R_NET ram_wdata\[28\] 4.998e-01
*DRIVER cpu/mem_wdata_reg_28_:Q
*CELL SAEDRVT14_FSDPQ_V2LP_1
*C2_R1_C1 2.499e-01 5.002e-02 2.499e-01 
*LOADS
*RC simpleuart/U234:A2 7.374e-03
*RC ram_wdata\[28\] 5.126e-03
*END

*R_NET ram_wdata\[27\] 4.998e-01
*DRIVER cpu/mem_wdata_reg_27_:Q
*CELL SAEDRVT14_FSDPQ_V2LP_1
*C2_R1_C1 2.499e-01 5.002e-02 2.499e-01 
*LOADS
*RC simpleuart/U233:A2 7.374e-03
*RC ram_wdata\[27\] 5.126e-03
*END

*R_NET ram_wdata\[26\] 4.998e-01
*DRIVER cpu/mem_wdata_reg_26_:Q
*CELL SAEDRVT14_FSDPQ_V2LP_1
*C2_R1_C1 2.499e-01 5.002e-02 2.499e-01 
*LOADS
*RC simpleuart/U232:A2 7.374e-03
*RC ram_wdata\[26\] 5.126e-03
*END

*R_NET ram_wdata\[25\] 4.998e-01
*DRIVER cpu/mem_wdata_reg_25_:Q
*CELL SAEDRVT14_FSDPQ_V2LP_1
*C2_R1_C1 2.499e-01 5.002e-02 2.499e-01 
*LOADS
*RC simpleuart/U231:A2 7.374e-03
*RC ram_wdata\[25\] 5.126e-03
*END

*R_NET ram_wdata\[24\] 4.998e-01
*DRIVER cpu/mem_wdata_reg_24_:Q
*CELL SAEDRVT14_FSDPQ_V2LP_1
*C2_R1_C1 2.499e-01 5.002e-02 2.499e-01 
*LOADS
*RC simpleuart/U230:A2 7.374e-03
*RC ram_wdata\[24\] 5.126e-03
*END

*R_NET ram_wdata\[23\] 4.998e-01
*DRIVER cpu/mem_wdata_reg_23_:Q
*CELL SAEDRVT14_FSDPQ_V2LP_1
*C2_R1_C1 2.499e-01 5.002e-02 2.499e-01 
*LOADS
*RC simpleuart/U229:A2 7.374e-03
*RC ram_wdata\[23\] 5.126e-03
*END

*R_NET ram_wdata\[22\] 7.271e-01
*DRIVER cpu/mem_wdata_reg_22_:Q
*CELL SAEDRVT14_FSDPQ_V2LP_1
*C2_R1_C1 3.635e-01 8.117e-02 3.635e-01 
*LOADS
*RC simpleuart/U227:A2 7.989e-03
*RC spimemio/cfgreg_di_22__UPF_LS:A 6.356e-03
*RC ram_wdata\[22\] 5.557e-03
*END

*R_NET ram_wdata\[21\] 7.271e-01
*DRIVER cpu/mem_wdata_reg_21_:Q
*CELL SAEDRVT14_FSDPQ_V2LP_1
*C2_R1_C1 3.635e-01 8.117e-02 3.635e-01 
*LOADS
*RC simpleuart/U226:A2 7.989e-03
*RC spimemio/cfgreg_di_21__UPF_LS:A 6.356e-03
*RC ram_wdata\[21\] 5.557e-03
*END

*R_NET ram_wdata\[20\] 7.271e-01
*DRIVER cpu/mem_wdata_reg_20_:Q
*CELL SAEDRVT14_FSDPQ_V2LP_1
*C2_R1_C1 3.635e-01 8.117e-02 3.635e-01 
*LOADS
*RC simpleuart/U207:A2 7.989e-03
*RC spimemio/cfgreg_di_20__UPF_LS:A 6.356e-03
*RC ram_wdata\[20\] 5.557e-03
*END

*R_NET ram_wdata\[19\] 7.271e-01
*DRIVER cpu/mem_wdata_reg_19_:Q
*CELL SAEDRVT14_FSDPQ_V2LP_1
*C2_R1_C1 3.635e-01 8.117e-02 3.635e-01 
*LOADS
*RC simpleuart/U224:A2 7.989e-03
*RC spimemio/cfgreg_di_19__UPF_LS:A 6.356e-03
*RC ram_wdata\[19\] 5.557e-03
*END

*R_NET ram_wdata\[18\] 7.271e-01
*DRIVER cpu/mem_wdata_reg_18_:Q
*CELL SAEDRVT14_FSDPQ_V2LP_1
*C2_R1_C1 3.635e-01 8.117e-02 3.635e-01 
*LOADS
*RC simpleuart/U223:A2 7.989e-03
*RC spimemio/cfgreg_di_18__UPF_LS:A 6.356e-03
*RC ram_wdata\[18\] 5.557e-03
*END

*R_NET ram_wdata\[17\] 7.271e-01
*DRIVER cpu/mem_wdata_reg_17_:Q
*CELL SAEDRVT14_FSDPQ_V2LP_1
*C2_R1_C1 3.635e-01 8.117e-02 3.635e-01 
*LOADS
*RC simpleuart/U222:A2 7.989e-03
*RC spimemio/cfgreg_di_17__UPF_LS:A 6.356e-03
*RC ram_wdata\[17\] 5.557e-03
*END

*R_NET ram_wdata\[16\] 7.271e-01
*DRIVER cpu/mem_wdata_reg_16_:Q
*CELL SAEDRVT14_FSDPQ_V2LP_1
*C2_R1_C1 3.635e-01 8.117e-02 3.635e-01 
*LOADS
*RC simpleuart/U221:A2 7.989e-03
*RC spimemio/cfgreg_di_16__UPF_LS:A 6.356e-03
*RC ram_wdata\[16\] 5.557e-03
*END

*R_NET ram_wdata\[15\] 9.121e-01
*DRIVER cpu/mem_wdata_reg_15_:Q
*CELL SAEDRVT14_FSDPQ_V2LP_1
*C2_R1_C1 4.560e-01 1.158e-01 4.560e-01 
*LOADS
*RC simpleuart/U220:A2 8.556e-03
*RC U1384:A 4.629e-03
*RC U1455:A2 7.268e-03
*RC ram_wdata\[15\] 5.955e-03
*END

*R_NET ram_wdata\[14\] 9.121e-01
*DRIVER cpu/mem_wdata_reg_14_:Q
*CELL SAEDRVT14_FSDPQ_V2LP_1
*C2_R1_C1 4.560e-01 1.158e-01 4.560e-01 
*LOADS
*RC simpleuart/U219:A2 8.556e-03
*RC U1389:A 4.629e-03
*RC U1453:A2 7.268e-03
*RC ram_wdata\[14\] 5.955e-03
*END

*R_NET ram_wdata\[13\] 9.121e-01
*DRIVER cpu/mem_wdata_reg_13_:Q
*CELL SAEDRVT14_FSDPQ_V2LP_1
*C2_R1_C1 4.560e-01 1.158e-01 4.560e-01 
*LOADS
*RC simpleuart/U218:A2 8.556e-03
*RC U1392:A 4.629e-03
*RC U1451:A2 7.268e-03
*RC ram_wdata\[13\] 5.955e-03
*END

*R_NET ram_wdata\[12\] 9.121e-01
*DRIVER cpu/mem_wdata_reg_12_:Q
*CELL SAEDRVT14_FSDPQ_V2LP_1
*C2_R1_C1 4.560e-01 1.158e-01 4.560e-01 
*LOADS
*RC simpleuart/U215:A2 8.556e-03
*RC U1390:A 4.629e-03
*RC U1450:A2 7.268e-03
*RC ram_wdata\[12\] 5.955e-03
*END

*R_NET ram_wdata\[11\] 1.141e+00
*DRIVER cpu/mem_wdata_reg_11_:Q
*CELL SAEDRVT14_FSDPQ_V2LP_1
*C2_R1_C1 5.704e-01 1.542e-01 5.704e-01 
*LOADS
*RC simpleuart/U228:A2 9.129e-03
*RC spimemio/cfgreg_di_11__UPF_LS:A 7.268e-03
*RC U1386:A 4.945e-03
*RC U1456:A2 7.756e-03
*RC ram_wdata\[11\] 6.357e-03
*END

*R_NET ram_wdata\[10\] 1.141e+00
*DRIVER cpu/mem_wdata_reg_10_:Q
*CELL SAEDRVT14_FSDPQ_V2LP_1
*C2_R1_C1 5.704e-01 1.542e-01 5.704e-01 
*LOADS
*RC simpleuart/U203:A2 9.129e-03
*RC spimemio/cfgreg_di_10__UPF_LS:A 7.268e-03
*RC U1394:A 4.945e-03
*RC U1454:A2 7.756e-03
*RC ram_wdata\[10\] 6.357e-03
*END

*R_NET ram_wdata\[9\] 1.141e+00
*DRIVER cpu/mem_wdata_reg_9_:Q
*CELL SAEDRVT14_FSDPQ_V2LP_1
*C2_R1_C1 5.704e-01 1.542e-01 5.704e-01 
*LOADS
*RC simpleuart/U204:A2 9.129e-03
*RC spimemio/cfgreg_di_9__UPF_LS:A 7.268e-03
*RC U1358:A 4.945e-03
*RC U1449:A2 7.756e-03
*RC ram_wdata\[9\] 6.357e-03
*END

*R_NET ram_wdata\[8\] 1.141e+00
*DRIVER cpu/mem_wdata_reg_8_:Q
*CELL SAEDRVT14_FSDPQ_V2LP_1
*C2_R1_C1 5.704e-01 1.542e-01 5.704e-01 
*LOADS
*RC simpleuart/U205:A2 9.129e-03
*RC spimemio/cfgreg_di_8__UPF_LS:A 7.268e-03
*RC U1355:A 4.945e-03
*RC U1452:A2 7.756e-03
*RC ram_wdata\[8\] 6.357e-03
*END

*R_NET ram_wdata\[7\] 1.218e+00
*DRIVER cpu/mem_wdata_reg_7_:Q
*CELL SAEDRVT14_FSDPQ_V2LP_1
*C2_R1_C1 6.088e-01 1.542e-01 6.088e-01 
*LOADS
*RC simpleuart/U380:A2 9.378e-03
*RC simpleuart/U208:A2 9.129e-03
*RC U1416:A 4.945e-03
*RC U1459:A2 7.756e-03
*RC ram_wdata\[7\] 6.357e-03
*END

*R_NET ram_wdata\[6\] 1.218e+00
*DRIVER cpu/mem_wdata_reg_6_:Q
*CELL SAEDRVT14_FSDPQ_V2LP_1
*C2_R1_C1 6.088e-01 1.542e-01 6.088e-01 
*LOADS
*RC simpleuart/U830:A2 9.378e-03
*RC simpleuart/U209:A2 9.129e-03
*RC U1107:A 4.945e-03
*RC U1120:A2 7.756e-03
*RC ram_wdata\[6\] 6.357e-03
*END

*R_NET ram_wdata\[5\] 1.447e+00
*DRIVER cpu/mem_wdata_reg_5_:Q
*CELL SAEDRVT14_FSDPQ_V2LP_1
*C2_R1_C1 7.236e-01 1.969e-01 7.236e-01 
*LOADS
*RC simpleuart/U828:A2 9.990e-03
*RC simpleuart/U210:A2 9.725e-03
*RC spimemio/cfgreg_di_5__UPF_LS:A 7.745e-03
*RC U1407:A 5.273e-03
*RC U1458:A2 8.265e-03
*RC ram_wdata\[5\] 6.775e-03
*END

*R_NET ram_wdata\[4\] 1.447e+00
*DRIVER cpu/mem_wdata_reg_4_:Q
*CELL SAEDRVT14_FSDPQ_V2LP_1
*C2_R1_C1 7.236e-01 1.969e-01 7.236e-01 
*LOADS
*RC simpleuart/U826:A2 9.990e-03
*RC simpleuart/U211:A2 9.725e-03
*RC spimemio/cfgreg_di_4__UPF_LS:A 7.745e-03
*RC U1410:A 5.273e-03
*RC U1463:A2 8.265e-03
*RC ram_wdata\[4\] 6.775e-03
*END

*R_NET ram_wdata\[3\] 1.447e+00
*DRIVER cpu/mem_wdata_reg_3_:Q
*CELL SAEDRVT14_FSDPQ_V2LP_1
*C2_R1_C1 7.236e-01 1.969e-01 7.236e-01 
*LOADS
*RC simpleuart/U824:A2 9.990e-03
*RC simpleuart/U212:A2 9.725e-03
*RC spimemio/cfgreg_di_3__UPF_LS:A 7.745e-03
*RC U1413:A 5.273e-03
*RC U1460:A2 8.265e-03
*RC ram_wdata\[3\] 6.775e-03
*END

*R_NET ram_wdata\[2\] 1.447e+00
*DRIVER cpu/mem_wdata_reg_2_:Q
*CELL SAEDRVT14_FSDPQ_V2LP_1
*C2_R1_C1 7.236e-01 1.969e-01 7.236e-01 
*LOADS
*RC simpleuart/U822:A2 9.990e-03
*RC simpleuart/U213:A2 9.725e-03
*RC spimemio/cfgreg_di_2__UPF_LS:A 7.745e-03
*RC U1421:A 5.273e-03
*RC U1461:A2 8.265e-03
*RC ram_wdata\[2\] 6.775e-03
*END

*R_NET ram_wdata\[1\] 1.510e+00
*DRIVER cpu/mem_wdata_reg_1_:Q
*CELL SAEDRVT14_FSDPQ_V2LP_1
*C2_R1_C1 7.550e-01 1.969e-01 7.550e-01 
*LOADS
*RC simpleuart/U820:A2 9.990e-03
*RC simpleuart/U214:A2 9.725e-03
*RC spimemio/cfgreg_di_1__UPF_LS:A 7.745e-03
*RC U1312:A2 8.015e-03
*RC U1464:A2 8.265e-03
*RC ram_wdata\[1\] 6.775e-03
*END

*R_NET ram_wdata\[0\] 1.396e+00
*DRIVER cpu/mem_wdata_reg_0_:Q
*CELL SAEDRVT14_FSDPQ_V2LP_1
*C2_R1_C1 6.979e-01 1.969e-01 6.979e-01 
*LOADS
*RC simpleuart/U818:A2 9.990e-03
*RC simpleuart/U812:A 8.037e-03
*RC spimemio/cfgreg_di_0__UPF_LS:A 7.745e-03
*RC U1269:A 5.273e-03
*RC U1462:A2 8.265e-03
*RC ram_wdata\[0\] 6.775e-03
*END

*R_NET ram_rdata\[31\] 3.023e-01
*DRIVER ram_rdata\[31\]
*CELL NULL
*C2_R1_C1 1.512e-01 2.192e-02 1.512e-01 
*LOADS
*RC U1798:A2 6.628e-03
*END

*R_NET ram_rdata\[30\] 3.023e-01
*DRIVER ram_rdata\[30\]
*CELL NULL
*C2_R1_C1 1.512e-01 2.192e-02 1.512e-01 
*LOADS
*RC U1794:A2 6.628e-03
*END

*R_NET ram_rdata\[29\] 3.023e-01
*DRIVER ram_rdata\[29\]
*CELL NULL
*C2_R1_C1 1.512e-01 2.192e-02 1.512e-01 
*LOADS
*RC U1790:A2 6.628e-03
*END

*R_NET ram_rdata\[28\] 3.023e-01
*DRIVER ram_rdata\[28\]
*CELL NULL
*C2_R1_C1 1.512e-01 2.192e-02 1.512e-01 
*LOADS
*RC U1786:A2 6.628e-03
*END

*R_NET ram_rdata\[27\] 3.023e-01
*DRIVER ram_rdata\[27\]
*CELL NULL
*C2_R1_C1 1.512e-01 2.192e-02 1.512e-01 
*LOADS
*RC U1782:A2 6.628e-03
*END

*R_NET ram_rdata\[26\] 3.023e-01
*DRIVER ram_rdata\[26\]
*CELL NULL
*C2_R1_C1 1.512e-01 2.192e-02 1.512e-01 
*LOADS
*RC U1778:A2 6.628e-03
*END

*R_NET ram_rdata\[25\] 3.023e-01
*DRIVER ram_rdata\[25\]
*CELL NULL
*C2_R1_C1 1.512e-01 2.192e-02 1.512e-01 
*LOADS
*RC U1774:A2 6.628e-03
*END

*R_NET ram_rdata\[24\] 3.023e-01
*DRIVER ram_rdata\[24\]
*CELL NULL
*C2_R1_C1 1.512e-01 2.192e-02 1.512e-01 
*LOADS
*RC U1770:A2 6.628e-03
*END

*R_NET ram_rdata\[23\] 3.023e-01
*DRIVER ram_rdata\[23\]
*CELL NULL
*C2_R1_C1 1.512e-01 2.192e-02 1.512e-01 
*LOADS
*RC U1766:A2 6.628e-03
*END

*R_NET ram_rdata\[22\] 3.023e-01
*DRIVER ram_rdata\[22\]
*CELL NULL
*C2_R1_C1 1.512e-01 2.192e-02 1.512e-01 
*LOADS
*RC U1761:A2 6.628e-03
*END

*R_NET ram_rdata\[21\] 3.023e-01
*DRIVER ram_rdata\[21\]
*CELL NULL
*C2_R1_C1 1.512e-01 2.192e-02 1.512e-01 
*LOADS
*RC U1756:A2 6.628e-03
*END

*R_NET ram_rdata\[20\] 3.023e-01
*DRIVER ram_rdata\[20\]
*CELL NULL
*C2_R1_C1 1.512e-01 2.192e-02 1.512e-01 
*LOADS
*RC U1751:A2 6.628e-03
*END

*R_NET ram_rdata\[19\] 3.023e-01
*DRIVER ram_rdata\[19\]
*CELL NULL
*C2_R1_C1 1.512e-01 2.192e-02 1.512e-01 
*LOADS
*RC U1746:A2 6.628e-03
*END

*R_NET ram_rdata\[18\] 3.023e-01
*DRIVER ram_rdata\[18\]
*CELL NULL
*C2_R1_C1 1.512e-01 2.192e-02 1.512e-01 
*LOADS
*RC U1741:A2 6.628e-03
*END

*R_NET ram_rdata\[17\] 3.023e-01
*DRIVER ram_rdata\[17\]
*CELL NULL
*C2_R1_C1 1.512e-01 2.192e-02 1.512e-01 
*LOADS
*RC U1736:A2 6.628e-03
*END

*R_NET ram_rdata\[16\] 3.023e-01
*DRIVER ram_rdata\[16\]
*CELL NULL
*C2_R1_C1 1.512e-01 2.192e-02 1.512e-01 
*LOADS
*RC U1731:A2 6.628e-03
*END
